C20H25NO4
APtclcactv06052318183D 0   0.00000     0.00000
 
 50 53  0  0  0  0  0  0  0  0999 V2000
    3.9983   -0.4874   -0.3632 C   0  0  0  0  0  0  0  0  0  0  0  0
    2.8493    0.2792   -0.9564 C   0  0  0  0  0  0  0  0  0  0  0  0
    2.2725    1.2944   -0.3405 C   0  0  0  0  0  0  0  0  0  0  0  0
    2.7691    1.7356    0.9701 C   0  0  0  0  0  0  0  0  0  0  0  0
    3.9054    1.2555    1.4404 C   0  0  0  0  0  0  0  0  0  0  0  0
    4.7538    0.2759    0.6781 C   0  0  0  0  0  0  0  0  0  0  0  0
    5.3945   -0.5744    1.6209 O   0  0  0  0  0  0  0  0  0  0  0  0
    6.6119   -1.1606    1.2515 C   0  0  0  0  0  0  0  0  0  0  0  0
    6.4030   -2.1105    0.0771 C   0  0  0  0  0  0  0  0  0  0  0  0
    6.1194   -1.3926   -1.2033 C   0  0  0  0  0  0  0  0  0  0  0  0
    4.8059   -0.9663   -1.4284 O   0  0  0  0  0  0  0  0  0  0  0  0
    1.1058    2.0009   -0.9815 C   0  0  0  0  0  0  0  0  0  0  0  0
   -0.1499    1.4333   -0.4726 N   0  0  0  0  0  0  0  0  0  0  0  0
   -1.3116    2.0991   -1.0769 C   0  0  0  0  0  0  0  0  0  0  0  0
   -2.5785    1.4915   -0.5320 C   0  0  0  0  0  0  0  0  0  0  0  0
   -3.1597    2.0173    0.6068 C   0  0  0  0  0  0  0  0  0  0  0  0
   -4.3321    1.4721    1.1020 C   0  0  0  0  0  0  0  0  0  0  0  0
   -4.9102    0.3994    0.4591 C   0  0  0  0  0  0  0  0  0  0  0  0
   -6.2164   -0.1856    0.9615 C   0  0  0  0  0  0  0  0  0  0  0  0
   -5.9755   -1.5090    1.4389 O   0  0  0  0  0  0  0  0  0  0  0  0
   -5.9901   -2.5299    0.4493 C   0  0  0  0  0  0  0  0  0  0  0  0
   -4.8212   -2.4467   -0.5108 C   0  0  0  0  0  0  0  0  0  0  0  0
   -4.8797   -1.2306   -1.2684 O   0  0  0  0  0  0  0  0  0  0  0  0
   -4.3206   -0.1466   -0.6690 C   0  0  0  0  0  0  0  0  0  0  0  0
   -3.1577    0.4144   -1.1762 C   0  0  0  0  0  0  0  0  0  0  0  0
   -0.1844    0.4365   -0.6256 H   0  0  0  0  0  0  0  0  0  0  0  0
    3.5765   -1.3659    0.1251 H   0  0  0  0  0  0  0  0  0  0  0  0
    2.4800   -0.0130   -1.9283 H   0  0  0  0  0  0  0  0  0  0  0  0
    2.2050    2.4524    1.5483 H   0  0  0  0  0  0  0  0  0  0  0  0
    4.2401    1.5806    2.4144 H   0  0  0  0  0  0  0  0  0  0  0  0
    5.5390    0.8395    0.1740 H   0  0  0  0  0  0  0  0  0  0  0  0
    7.3161   -0.3799    0.9639 H   0  0  0  0  0  0  0  0  0  0  0  0
    7.0169   -1.7158    2.0975 H   0  0  0  0  0  0  0  0  0  0  0  0
    7.3008   -2.7153   -0.0501 H   0  0  0  0  0  0  0  0  0  0  0  0
    5.5657   -2.7706    0.3032 H   0  0  0  0  0  0  0  0  0  0  0  0
    6.7665   -0.5164   -1.2452 H   0  0  0  0  0  0  0  0  0  0  0  0
    6.4022   -2.0508   -2.0248 H   0  0  0  0  0  0  0  0  0  0  0  0
    1.1479    3.0633   -0.7414 H   0  0  0  0  0  0  0  0  0  0  0  0
    1.1516    1.8706   -2.0627 H   0  0  0  0  0  0  0  0  0  0  0  0
   -1.2863    3.1621   -0.8375 H   0  0  0  0  0  0  0  0  0  0  0  0
   -1.2825    1.9695   -2.1588 H   0  0  0  0  0  0  0  0  0  0  0  0
   -2.6986    2.8538    1.1108 H   0  0  0  0  0  0  0  0  0  0  0  0
   -4.7910    1.8853    1.9880 H   0  0  0  0  0  0  0  0  0  0  0  0
   -6.6042    0.4304    1.7729 H   0  0  0  0  0  0  0  0  0  0  0  0
   -6.9397   -0.2172    0.1467 H   0  0  0  0  0  0  0  0  0  0  0  0
   -5.9667   -3.4997    0.9463 H   0  0  0  0  0  0  0  0  0  0  0  0
   -6.9167   -2.4531   -0.1196 H   0  0  0  0  0  0  0  0  0  0  0  0
   -3.8890   -2.4754    0.0533 H   0  0  0  0  0  0  0  0  0  0  0  0
   -4.8530   -3.2973   -1.1917 H   0  0  0  0  0  0  0  0  0  0  0  0
   -2.7047    0.0088   -2.0688 H   0  0  0  0  0  0  0  0  0  0  0  0
  1  2  1  0  0  0  0
  2  3  2  0  0  0  0
  3  4  1  0  0  0  0
  4  5  2  0  0  0  0
  5  6  1  0  0  0  0
  1  6  1  0  0  0  0
  6  7  1  0  0  0  0
  7  8  1  0  0  0  0
  8  9  1  0  0  0  0
  9 10  1  0  0  0  0
 10 11  1  0  0  0  0
  1 11  1  0  0  0  0
  3 12  1  0  0  0  0
 12 13  1  0  0  0  0
 13 14  1  0  0  0  0
 14 15  1  0  0  0  0
 15 16  2  0  0  0  0
 16 17  1  0  0  0  0
 17 18  2  0  0  0  0
 18 19  1  0  0  0  0
 19 20  1  0  0  0  0
 20 21  1  0  0  0  0
 21 22  1  0  0  0  0
 22 23  1  0  0  0  0
 23 24  1  0  0  0  0
 18 24  1  0  0  0  0
 24 25  2  0  0  0  0
 15 25  1  0  0  0  0
 13 26  1  0  0  0  0
  1 27  1  0  0  0  0
  2 28  1  0  0  0  0
  4 29  1  0  0  0  0
  5 30  1  0  0  0  0
  6 31  1  0  0  0  0
  8 32  1  0  0  0  0
  8 33  1  0  0  0  0
  9 34  1  0  0  0  0
  9 35  1  0  0  0  0
 10 36  1  0  0  0  0
 10 37  1  0  0  0  0
 12 38  1  0  0  0  0
 12 39  1  0  0  0  0
 14 40  1  0  0  0  0
 14 41  1  0  0  0  0
 16 42  1  0  0  0  0
 17 43  1  0  0  0  0
 19 44  1  0  0  0  0
 19 45  1  0  0  0  0
 21 46  1  0  0  0  0
 21 47  1  0  0  0  0
 22 48  1  0  0  0  0
 22 49  1  0  0  0  0
 25 50  1  0  0  0  0
M  END
$$$$
