C13H21NO2
APtclcactv06052316443D 0   0.00000     0.00000
 
 37 38  0  0  0  0  0  0  0  0999 V2000
   -1.2878   -0.7548    0.2891 C   0  0  0  0  0  0  0  0  0  0  0  0
   -2.1919   -1.3699   -0.6053 O   0  0  0  0  0  0  0  0  0  0  0  0
   -3.5622   -1.2657   -0.1925 C   0  0  0  0  0  0  0  0  0  0  0  0
   -4.2120   -0.0406   -0.8213 C   0  0  0  0  0  0  0  0  0  0  0  0
   -3.3988    1.1255   -0.8105 O   0  0  0  0  0  0  0  0  0  0  0  0
   -2.6936    1.3484    0.4192 C   0  0  0  0  0  0  0  0  0  0  0  0
   -1.3125    0.7335    0.3156 C   0  0  0  0  0  0  0  0  0  0  0  0
   -0.3407    1.2874    1.3160 C   0  0  0  0  0  0  0  0  0  0  0  0
    0.8056    0.6359    1.5189 C   0  0  0  0  0  0  0  0  0  0  0  0
    1.0929   -0.6106    0.7937 C   0  0  0  0  0  0  0  0  0  0  0  0
    2.5060   -1.1307    0.7315 C   0  0  0  0  0  0  0  0  0  0  0  0
    3.2470   -0.4568   -0.4250 C   0  0  0  0  0  0  0  0  0  0  0  0
    3.3738    0.9813   -0.1536 N   0  0  0  0  0  0  0  0  0  0  0  0
    3.5149    1.7423   -1.4022 C   0  0  0  0  0  0  0  0  0  0  0  0
    2.5918    1.3174    0.3883 H   0  0  0  0  0  0  0  0  0  0  0  0
    4.6399   -1.0738   -0.5668 C   0  0  0  0  0  0  0  0  0  0  0  0
    0.1125   -1.2845    0.1905 C   0  0  0  0  0  0  0  0  0  0  0  0
   -1.6171   -1.0609    1.2821 H   0  0  0  0  0  0  0  0  0  0  0  0
   -4.1018   -2.1601   -0.5038 H   0  0  0  0  0  0  0  0  0  0  0  0
   -3.6064   -1.1803    0.8932 H   0  0  0  0  0  0  0  0  0  0  0  0
   -4.4657   -0.2758   -1.8549 H   0  0  0  0  0  0  0  0  0  0  0  0
   -5.1347    0.1761   -0.2830 H   0  0  0  0  0  0  0  0  0  0  0  0
   -2.6032    2.4197    0.5987 H   0  0  0  0  0  0  0  0  0  0  0  0
   -3.2386    0.8844    1.2413 H   0  0  0  0  0  0  0  0  0  0  0  0
   -0.9228    1.0492   -0.6521 H   0  0  0  0  0  0  0  0  0  0  0  0
   -0.5642    2.1936    1.8594 H   0  0  0  0  0  0  0  0  0  0  0  0
    1.5277    1.0269    2.2203 H   0  0  0  0  0  0  0  0  0  0  0  0
    3.0164   -0.9087    1.6686 H   0  0  0  0  0  0  0  0  0  0  0  0
    2.4896   -2.2090    0.5733 H   0  0  0  0  0  0  0  0  0  0  0  0
    2.6885   -0.6042   -1.3494 H   0  0  0  0  0  0  0  0  0  0  0  0
    3.6069    2.8038   -1.1723 H   0  0  0  0  0  0  0  0  0  0  0  0
    4.4057    1.4070   -1.9333 H   0  0  0  0  0  0  0  0  0  0  0  0
    2.6367    1.5808   -2.0273 H   0  0  0  0  0  0  0  0  0  0  0  0
    5.1984   -0.9264    0.3576 H   0  0  0  0  0  0  0  0  0  0  0  0
    4.5458   -2.1409   -0.7682 H   0  0  0  0  0  0  0  0  0  0  0  0
    5.1678   -0.5937   -1.3907 H   0  0  0  0  0  0  0  0  0  0  0  0
    0.3220   -2.1919   -0.3566 H   0  0  0  0  0  0  0  0  0  0  0  0
  1  2  1  0  0  0  0
  2  3  1  0  0  0  0
  3  4  1  0  0  0  0
  4  5  1  0  0  0  0
  5  6  1  0  0  0  0
  6  7  1  0  0  0  0
  1  7  1  0  0  0  0
  7  8  1  0  0  0  0
  8  9  2  0  0  0  0
  9 10  1  0  0  0  0
 10 11  1  0  0  0  0
 11 12  1  0  0  0  0
 12 13  1  0  0  0  0
 13 14  1  0  0  0  0
 13 15  1  0  0  0  0
 12 16  1  0  0  0  0
 10 17  2  0  0  0  0
  1 17  1  0  0  0  0
  1 18  1  0  0  0  0
  3 19  1  0  0  0  0
  3 20  1  0  0  0  0
  4 21  1  0  0  0  0
  4 22  1  0  0  0  0
  6 23  1  0  0  0  0
  6 24  1  0  0  0  0
  7 25  1  0  0  0  0
  8 26  1  0  0  0  0
  9 27  1  0  0  0  0
 11 28  1  0  0  0  0
 11 29  1  0  0  0  0
 12 30  1  0  0  0  0
 14 31  1  0  0  0  0
 14 32  1  0  0  0  0
 14 33  1  0  0  0  0
 16 34  1  0  0  0  0
 16 35  1  0  0  0  0
 16 36  1  0  0  0  0
 17 37  1  0  0  0  0
M  END
$$$$
