C23H29NO2
APtclcactv06062317353D 0   0.00000     0.00000
 
 55 57  0  0  0  0  0  0  0  0999 V2000
   -6.9634   -0.0254    0.6814 O   0  0  0  0  0  0  0  0  0  0  0  0
   -7.8427    0.3709    0.6114 H   0  0  0  0  0  0  0  0  0  0  0  0
   -5.9395    0.6674    0.1585 C   0  0  0  0  0  0  0  0  0  0  0  0
   -4.5400    0.1128    0.2300 C   0  0  0  0  0  0  0  0  0  0  0  0
   -3.5692    1.0913   -0.4341 C   0  0  0  0  0  0  0  0  0  0  0  0
   -2.1484    0.5282   -0.3616 C   0  0  0  0  0  0  0  0  0  0  0  0
   -2.0644   -0.7529   -1.1938 C   0  0  0  0  0  0  0  0  0  0  0  0
   -1.1622    1.5600   -0.9127 C   0  0  0  0  0  0  0  0  0  0  0  0
   -1.3112    2.5127   -0.4045 H   0  0  0  0  0  0  0  0  0  0  0  0
    0.2693    1.0743   -0.6763 C   0  0  0  0  0  0  0  0  0  0  0  0
    1.2499    2.0169   -1.3768 C   0  0  0  0  0  0  0  0  0  0  0  0
    0.5495    1.0597    0.7657 N   0  0  0  0  0  0  0  0  0  0  0  0
   -0.2914    0.8865    1.2957 H   0  0  0  0  0  0  0  0  0  0  0  0
    1.5886    0.0733    1.0900 C   0  0  0  0  0  0  0  0  0  0  0  0
    1.0445   -1.2447    0.7000 C   0  0  0  0  0  0  0  0  0  0  0  0
   -0.2419   -1.4732    1.2325 C   0  0  0  0  0  0  0  0  0  0  0  0
   -0.9498   -2.6120    0.9401 C   0  0  0  0  0  0  0  0  0  0  0  0
   -0.3829   -3.5471    0.0933 C   0  0  0  0  0  0  0  0  0  0  0  0
    0.8765   -3.3242   -0.3990 C   0  0  0  0  0  0  0  0  0  0  0  0
    1.6192   -2.1678   -0.0629 C   0  0  0  0  0  0  0  0  0  0  0  0
    3.0190   -2.2905   -0.6250 C   0  0  0  0  0  0  0  0  0  0  0  0
    3.5570   -1.0416   -1.2494 C   0  0  0  0  0  0  0  0  0  0  0  0
    3.6908    0.1359   -0.3068 C   0  0  0  0  0  0  0  0  0  0  0  0
    4.9358    0.7721   -0.5175 C   0  0  0  0  0  0  0  0  0  0  0  0
    5.2895    1.9170    0.1475 C   0  0  0  0  0  0  0  0  0  0  0  0
    4.3996    2.4722    1.0492 C   0  0  0  0  0  0  0  0  0  0  0  0
    3.2078    1.8323    1.2776 C   0  0  0  0  0  0  0  0  0  0  0  0
    2.8639    0.6409    0.6049 C   0  0  0  0  0  0  0  0  0  0  0  0
   -6.1398    1.7356   -0.3694 O   0  0  0  0  0  0  0  0  0  0  0  0
   -4.2576   -0.0274    1.2734 H   0  0  0  0  0  0  0  0  0  0  0  0
   -4.5019   -0.8452   -0.2886 H   0  0  0  0  0  0  0  0  0  0  0  0
   -3.8516    1.2315   -1.4775 H   0  0  0  0  0  0  0  0  0  0  0  0
   -3.6073    2.0492    0.0845 H   0  0  0  0  0  0  0  0  0  0  0  0
   -1.8987    0.3048    0.6756 H   0  0  0  0  0  0  0  0  0  0  0  0
   -2.6837   -1.5245   -0.7364 H   0  0  0  0  0  0  0  0  0  0  0  0
   -2.4199   -0.5535   -2.2047 H   0  0  0  0  0  0  0  0  0  0  0  0
   -1.0297   -1.0934   -1.2331 H   0  0  0  0  0  0  0  0  0  0  0  0
   -1.3304    1.6884   -1.9820 H   0  0  0  0  0  0  0  0  0  0  0  0
    0.3825    0.0677   -1.0787 H   0  0  0  0  0  0  0  0  0  0  0  0
    1.1366    3.0236   -0.9745 H   0  0  0  0  0  0  0  0  0  0  0  0
    2.2697    1.6709   -1.2084 H   0  0  0  0  0  0  0  0  0  0  0  0
    1.0420    2.0278   -2.4468 H   0  0  0  0  0  0  0  0  0  0  0  0
    1.6525    0.0672    2.1781 H   0  0  0  0  0  0  0  0  0  0  0  0
   -0.6805   -0.7336    1.8860 H   0  0  0  0  0  0  0  0  0  0  0  0
   -1.9301   -2.7749    1.3631 H   0  0  0  0  0  0  0  0  0  0  0  0
   -0.9254   -4.4413   -0.1761 H   0  0  0  0  0  0  0  0  0  0  0  0
    1.3154   -4.0535   -1.0637 H   0  0  0  0  0  0  0  0  0  0  0  0
    3.6890   -2.5884    0.1815 H   0  0  0  0  0  0  0  0  0  0  0  0
    3.0200   -3.0795   -1.3771 H   0  0  0  0  0  0  0  0  0  0  0  0
    4.5396   -1.2614   -1.6669 H   0  0  0  0  0  0  0  0  0  0  0  0
    2.8967   -0.7540   -2.0676 H   0  0  0  0  0  0  0  0  0  0  0  0
    5.6299    0.3422   -1.2245 H   0  0  0  0  0  0  0  0  0  0  0  0
    6.2492    2.3793   -0.0303 H   0  0  0  0  0  0  0  0  0  0  0  0
    4.6385    3.3912    1.5637 H   0  0  0  0  0  0  0  0  0  0  0  0
    2.5145    2.2514    1.9918 H   0  0  0  0  0  0  0  0  0  0  0  0
  1  2  1  0  0  0  0
  1  3  1  0  0  0  0
  3  4  1  0  0  0  0
  4  5  1  0  0  0  0
  5  6  1  0  0  0  0
  6  7  1  0  0  0  0
  6  8  1  0  0  0  0
  8  9  1  0  0  0  0
  8 10  1  0  0  0  0
 10 11  1  0  0  0  0
 10 12  1  0  0  0  0
 12 13  1  0  0  0  0
 12 14  1  0  0  0  0
 14 15  1  0  0  0  0
 15 16  2  0  0  0  0
 16 17  1  0  0  0  0
 17 18  2  0  0  0  0
 18 19  1  0  0  0  0
 19 20  2  0  0  0  0
 15 20  1  0  0  0  0
 20 21  1  0  0  0  0
 21 22  1  0  0  0  0
 22 23  1  0  0  0  0
 23 24  2  0  0  0  0
 24 25  1  0  0  0  0
 25 26  2  0  0  0  0
 26 27  1  0  0  0  0
 27 28  2  0  0  0  0
 14 28  1  0  0  0  0
 23 28  1  0  0  0  0
  3 29  2  0  0  0  0
  4 30  1  0  0  0  0
  4 31  1  0  0  0  0
  5 32  1  0  0  0  0
  5 33  1  0  0  0  0
  6 34  1  0  0  0  0
  7 35  1  0  0  0  0
  7 36  1  0  0  0  0
  7 37  1  0  0  0  0
  8 38  1  0  0  0  0
 10 39  1  0  0  0  0
 11 40  1  0  0  0  0
 11 41  1  0  0  0  0
 11 42  1  0  0  0  0
 14 43  1  0  0  0  0
 16 44  1  0  0  0  0
 17 45  1  0  0  0  0
 18 46  1  0  0  0  0
 19 47  1  0  0  0  0
 21 48  1  0  0  0  0
 21 49  1  0  0  0  0
 22 50  1  0  0  0  0
 22 51  1  0  0  0  0
 24 52  1  0  0  0  0
 25 53  1  0  0  0  0
 26 54  1  0  0  0  0
 27 55  1  0  0  0  0
M  END
$$$$
