C17H36N2
APtclcactv06062319143D 0   0.00000     0.00000
 
 55 55  0  0  0  0  0  0  0  0999 V2000
   -2.4542   -0.5790    0.4104 C   0  0  0  0  0  0  0  0  0  0  0  0
   -2.4559   -1.6200    0.0872 H   0  0  0  0  0  0  0  0  0  0  0  0
   -1.2122    0.1241   -0.1408 C   0  0  0  0  0  0  0  0  0  0  0  0
   -1.1662    1.5625    0.3803 C   0  0  0  0  0  0  0  0  0  0  0  0
    0.0479    2.2231   -0.1190 N   0  0  0  0  0  0  0  0  0  0  0  0
    0.0772    3.1901    0.1675 H   0  0  0  0  0  0  0  0  0  0  0  0
    1.2529    1.5065    0.3214 C   0  0  0  0  0  0  0  0  0  0  0  0
    1.2069    0.0681   -0.1997 C   0  0  0  0  0  0  0  0  0  0  0  0
    2.4405   -0.6923    0.2912 C   0  0  0  0  0  0  0  0  0  0  0  0
    2.3548   -1.7425    0.0120 H   0  0  0  0  0  0  0  0  0  0  0  0
    3.6956   -0.0954   -0.3485 C   0  0  0  0  0  0  0  0  0  0  0  0
    4.9346   -0.8066    0.1992 C   0  0  0  0  0  0  0  0  0  0  0  0
    6.1898   -0.2096   -0.4405 C   0  0  0  0  0  0  0  0  0  0  0  0
    6.1037   -0.2604   -1.5259 H   0  4  0  0  0  0  0  0  0  0  0  0
    6.3372    1.2507   -0.0083 C   0  0  0  0  0  0  0  0  0  0  0  0
    7.4184   -1.0016    0.0113 C   0  0  0  0  0  0  0  0  0  0  0  0
    7.3134   -2.0420   -0.2966 H   0  2  0  0  0  0  0  0  0  0  0  0
   -0.0071   -0.5925    0.2996 N   0  0  0  0  0  0  0  0  0  0  0  0
   -0.0499   -2.0003   -0.1176 C   0  0  0  0  0  0  0  0  0  0  0  0
   -3.7105    0.1196   -0.1137 C   0  0  0  0  0  0  0  0  0  0  0  0
   -4.9510   -0.5382    0.4941 C   0  0  0  0  0  0  0  0  0  0  0  0
   -6.2072    0.1604   -0.0300 C   0  0  0  0  0  0  0  0  0  0  0  0
   -6.1393    1.2294    0.1717 H   0  4  0  0  0  0  0  0  0  0  0  0
   -6.3260   -0.0676   -1.5382 C   0  0  0  0  0  0  0  0  0  0  0  0
   -7.4400   -0.4135    0.6713 C   0  0  0  0  0  0  0  0  0  0  0  0
   -7.3554   -0.2511    1.7458 H   0  2  0  0  0  0  0  0  0  0  0  0
   -2.4425   -0.5366    1.4995 H   0  0  0  0  0  0  0  0  0  0  0  0
   -1.2526    0.1331   -1.2300 H   0  0  0  0  0  0  0  0  0  0  0  0
   -2.0450    2.1042    0.0306 H   0  0  0  0  0  0  0  0  0  0  0  0
   -1.1536    1.5541    1.4702 H   0  0  0  0  0  0  0  0  0  0  0  0
    2.1378    2.0074   -0.0712 H   0  0  0  0  0  0  0  0  0  0  0  0
    1.2930    1.4975    1.4106 H   0  0  0  0  0  0  0  0  0  0  0  0
    1.1947    0.0764   -1.2896 H   0  0  0  0  0  0  0  0  0  0  0  0
    2.5108   -0.6092    1.3757 H   0  0  0  0  0  0  0  0  0  0  0  0
    3.6498   -0.2262   -1.4296 H   0  0  0  0  0  0  0  0  0  0  0  0
    3.7530    0.9674   -0.1131 H   0  0  0  0  0  0  0  0  0  0  0  0
    4.9805   -0.6758    1.2803 H   0  0  0  0  0  0  0  0  0  0  0  0
    4.8773   -1.8693   -0.0361 H   0  0  0  0  0  0  0  0  0  0  0  0
    7.2313    1.6760   -0.4640 H   0  0  0  0  0  0  0  0  0  0  0  0
    5.4619    1.8150   -0.3302 H   0  0  0  0  0  0  0  0  0  0  0  0
    6.4233    1.3015    1.0771 H   0  0  0  0  0  0  0  0  0  0  0  0
    8.3126   -0.5763   -0.4444 H   0  0  0  0  0  0  0  0  0  0  0  0
    7.5045   -0.9508    1.0967 H   0  0  0  0  0  0  0  0  0  0  0  0
    0.8045   -2.5302    0.3037 H   0  0  0  0  0  0  0  0  0  0  0  0
   -0.9728   -2.4572    0.2395 H   0  0  0  0  0  0  0  0  0  0  0  0
   -0.0130   -2.0582   -1.2054 H   0  0  0  0  0  0  0  0  0  0  0  0
   -3.6839    1.1728    0.1659 H   0  0  0  0  0  0  0  0  0  0  0  0
   -3.7483    0.0328   -1.1995 H   0  0  0  0  0  0  0  0  0  0  0  0
   -4.9776   -1.5914    0.2145 H   0  0  0  0  0  0  0  0  0  0  0  0
   -4.9131   -0.4514    1.5800 H   0  0  0  0  0  0  0  0  0  0  0  0
   -5.4478    0.3413   -2.0378 H   0  0  0  0  0  0  0  0  0  0  0  0
   -6.3939   -1.1366   -1.7398 H   0  0  0  0  0  0  0  0  0  0  0  0
   -7.2210    0.4301   -1.9115 H   0  0  0  0  0  0  0  0  0  0  0  0
   -8.3350    0.0842    0.2979 H   0  0  0  0  0  0  0  0  0  0  0  0
   -7.5079   -1.4826    0.4697 H   0  0  0  0  0  0  0  0  0  0  0  0
  1  2  1  0  0  0  0
  1  3  1  0  0  0  0
  3  4  1  0  0  0  0
  4  5  1  0  0  0  0
  5  6  1  0  0  0  0
  5  7  1  0  0  0  0
  7  8  1  0  0  0  0
  8  9  1  0  0  0  0
  9 10  1  0  0  0  0
  9 11  1  0  0  0  0
 11 12  1  0  0  0  0
 12 13  1  0  0  0  0
 13 14  1  0  0  0  0
 13 15  1  0  0  0  0
 13 16  1  0  0  0  0
 16 17  1  0  0  0  0
  8 18  1  0  0  0  0
  3 18  1  0  0  0  0
 18 19  1  0  0  0  0
  1 20  1  0  0  0  0
 20 21  1  0  0  0  0
 21 22  1  0  0  0  0
 22 23  1  0  0  0  0
 22 24  1  0  0  0  0
 22 25  1  0  0  0  0
 25 26  1  0  0  0  0
  1 27  1  0  0  0  0
  3 28  1  0  0  0  0
  4 29  1  0  0  0  0
  4 30  1  0  0  0  0
  7 31  1  0  0  0  0
  7 32  1  0  0  0  0
  8 33  1  0  0  0  0
  9 34  1  0  0  0  0
 11 35  1  0  0  0  0
 11 36  1  0  0  0  0
 12 37  1  0  0  0  0
 12 38  1  0  0  0  0
 15 39  1  0  0  0  0
 15 40  1  0  0  0  0
 15 41  1  0  0  0  0
 16 42  1  0  0  0  0
 16 43  1  0  0  0  0
 19 44  1  0  0  0  0
 19 45  1  0  0  0  0
 19 46  1  0  0  0  0
 20 47  1  0  0  0  0
 20 48  1  0  0  0  0
 21 49  1  0  0  0  0
 21 50  1  0  0  0  0
 24 51  1  0  0  0  0
 24 52  1  0  0  0  0
 24 53  1  0  0  0  0
 25 54  1  0  0  0  0
 25 55  1  0  0  0  0
M  CHG  4  14   3  17   2  23   3  26   2
M  RAD  2  14   2  23   2
M  END
$$$$
